Version 4
SHEET 1 888 680
WIRE 464 -96 80 -96
WIRE 848 -96 544 -96
WIRE 80 64 80 -96
WIRE 80 64 -32 64
WIRE 144 64 80 64
WIRE 400 64 224 64
WIRE 512 64 400 64
WIRE 672 64 592 64
WIRE 848 64 848 -96
WIRE 848 64 752 64
WIRE 400 176 400 64
WIRE 80 192 80 64
WIRE -32 240 -32 64
WIRE -32 384 -32 320
WIRE 80 384 80 272
WIRE 80 384 -32 384
WIRE 192 384 80 384
WIRE 400 384 400 256
WIRE 400 384 192 384
WIRE 192 448 192 384
FLAG 192 448 0
SYMBOL res 384 160 R0
SYMATTR InstName R2
SYMATTR Value 6
SYMBOL res 608 48 R90
WINDOW 0 0 56 VBottom 2
WINDOW 3 32 56 VTop 2
SYMATTR InstName R3
SYMATTR Value 10
SYMBOL voltage 768 64 R90
WINDOW 0 -32 56 VBottom 2
WINDOW 3 32 56 VTop 2
SYMATTR InstName Ix
SYMATTR Value 0
SYMBOL h 128 64 R270
WINDOW 0 32 56 VTop 2
WINDOW 3 -32 56 VBottom 2
SYMATTR InstName H1
SYMATTR Value Ix 4
SYMBOL current 464 -96 R270
WINDOW 0 32 40 VTop 2
WINDOW 3 -32 40 VBottom 2
SYMATTR InstName I2
SYMATTR Value 2
SYMBOL res 64 176 R0
SYMATTR InstName R1
SYMATTR Value 3
SYMBOL current -32 320 R180
WINDOW 0 24 80 Left 2
WINDOW 3 24 0 Left 2
WINDOW 123 0 0 Left 0
WINDOW 39 0 0 Left 0
SYMATTR InstName I1
SYMATTR Value 10
TEXT -16 464 Left 2 !.op
TEXT 448 288 Left 2 ;ketaki mahajan / A-3 / 16014022050
TEXT 192 -208 Left 2 ;NSS: exp2 Thevenin's Theorem
