Version 4
SHEET 1 880 680
WIRE 336 -48 272 -48
WIRE 496 -48 384 -48
WIRE 320 0 64 0
WIRE 496 0 496 -48
WIRE 496 0 400 0
WIRE 64 64 64 0
WIRE 64 208 64 144
WIRE 64 352 64 288
WIRE 208 352 64 352
WIRE 272 352 272 -48
WIRE 272 352 208 352
WIRE 208 432 208 352
FLAG 208 432 0
SYMBOL res 48 48 R0
SYMATTR InstName R1
SYMATTR Value 4
SYMBOL voltage 64 192 R0
SYMATTR InstName V1
SYMATTR Value 12
SYMBOL e 416 0 R90
SYMATTR InstName E
SYMATTR Value 0.5V
TEXT 240 392 Left 2 ;ketaki mahajan / A-3 / 16014022050
TEXT 104 -136 Left 2 ;NSS exp2 - post lab question
TEXT 72 432 Left 2 !.op
